<tazs>
	<taz
		edges="-101513793 -114254840#1 -122857296#1 -123155040 -136105812 -137242321 -141433955 -147926678#4 -151087441#1 -151087449#2.390 -153470059#2 -159493810#1 -264955142 -366231831#2 -37724033#2 -50816148 -514345573#2 101513793 101513797#0 112202577#0 114254840#0 115446969 137242321 141432703#0 14187177#0 145178198#1 145178200#0 146504815 147926678#0 149873834#0 150581334 151087441#0 151087447#0 153470059#0 154204113 154496957 159491263 169254467#0 169254469 169254470 174960048 243452654#0 260756024 260756025#0 260756026#0 260756043#0 264955140#0 264955141#0 264955142 303993533 303993534 311960666 33531398#0 366137231#0 366231817 366231831#0 37724033#0 380171570 3811203#0 410466893 50816150#0 514345573#0"
		id="9162085" />
	<taz
		edges="-103281163#2 -113075381#1 -132236428#2 -154179330 -23967821 -625373781#2 -625641597 -92881833 112572407 114275402 127237582 127237615 144330337 144330339 144435600#0 144435600#2 146396223#0 146632266 147562130#0 150581337#0 151405937#1 151405944 152580966 154179330 156454379 182664848#0 186296206#0 189183930 189183931#0 230139223#0 230139224#0 230139224#1 230139224#2 230139224#3 230251448 230251450#0 230251451#1 230251452 230252868#0 230252869#0 230254191 230254197#0 230254198 231456459#0 231456459#1 231456469#0 231456482#0 264964139#0 26696133#0 26696134#0 27417810 27417815#0 28974374 28974375 290582411 291785531#0 311747330#0 311747331#0 311747332#0 31240124 35078634 35078638#1 3576091#0 3576887 360936777 37666019 37666023#0 37666176#0 380412858#0 395687350 395687351 4066170 4066171#0 41108870#0 460402165 461097074 625373781#0 92881833 99862913#0"
		id="9162122" />
	<taz
		edges="-103950742 -116145061 -124484965#1 -133186296 -143474810 -151648801 -153093262 -153094271 -153095159 -153098285 -168265278 -174739553 -174739555 -174739561 -174739579 -174739630 -186554771 -186554775 -187836114 -187867091 -187870589 -187870593#0 -187870596 -23395312#1 -245487363 -245487365#1 -245487366 -245487367 -245487368 -245487369 -246631282 -246639013#1 -246639016#3 -246639017 -246639021#3 -246639022 -246639024#3 -246639025#2 -246639026 -246639027#1 -246639028#2 -246639032#2 -24769951 -247719089 -247719091 -247719096#2 -255834310 -299988911#2 -299988912#2 -299988915#1 -30017692#6 -303976883 -303976889 -303976890 -30428003#2 -30640468 -30882641 -311890500 -318248788#2 -326512437 -326512438 -326512439 -326537011 -32992029 -334186514#1 -38499979#1 -386516184 -386516185 -386516186 -386516187 -38765331 -389870013 -389870022 -40640118 -4073022 -4228952 -4228959 -4229016 -4230989#2 -4307723 -43710630 -481642398 -494444392 -494444395 -494444396 -494444397 -494444399#2 -494444404#1 -49816356#1 -498934821 -4998510 -4998511 -4999324#2 10701425 11611256 116145061 121262017 121262034 133186296 133667532 142948413 142948414 143093799 143112961 143124368#1 143124368#2 143124368#3 143124368#4 143124368#5 143124368#6 143124372 143124373 143124376 143124378 143474812#1 143476005 143476007 146514531 150765171 150765178 150765182 150765263 150765265 150765274#0 151648801 153093258 153093262 153094271 153095159 153095225 153095895 153461496 153461496 153461496 154915063#1 154915063#2 154915064#1 154915064#2 154915065 172888637 172888638 174739553 174739583 17551649 17552788 17554697 184189587 186554771 186554775 187836114 187870589 187870590 187870596 18833164 18833165 19568186#0 23395312#0 24405913 245440732 245440732 245440732 245440735 245440737 245487350 245487350 245487350 245487355 245487357 245487357 245487357 245487361 245487364 245487365#0 245487367 245487369 245487375 245487383 246631281 246631282 246631283 246631286 246631288 246639013#0 246639016#0 246639017 246639018 246639021#0 246639022 246639023 246639024#0 246639025#0 246639027#0 246639028#0 246639032#0 24687084 24687151 24687207 24725213 247719089 247719091 247719094 247719096#0 250558135 250558136 250558137 254854440 255834248 255834270 255834389 261603073 26984582 26984583 27456392#0 28757077 28757078 288717312 288717312 288717312 288717313 288793421 288793423 292747361 292747361 299988911#0 299988912#0 299988915#0 30171114#0 303976884 303976889 303976890 30428003#0 307626512#1 311890500 311890501 318248788#0 318347293 318347294 318347294 318347295 318347295-AddedOnRampEdge 318347295-AddedOnRampEdge 32112916 326512436 326512437 326512438 326512439 326537009 32732029 32732032 32732035 32992029 33274214 334186514#0 339795927#0 35145382#0 376389264 376390094 381834746 38499979#0 386516183 386516184 386516185 386516186 386516210 38765323 4003810#1 4003810#2 4003810#3 4003810#4 4003811#1 4003815 4004659 4073022 4228927 4228928 4228931 4228932 4228935 4228944 4228945 4228948 4228949 4228952 4228960 4228961 4228962 4229016 4229036 4229635 4229636 4230968 4230968 4230968 4230988#0 4230989#0 4231190 43333614 43333620 484771397 484774423 484774424 490163227 49073481 494444393 494444406 4975937 4975938#0 4975938#1 4975938#1-AddedOnRampEdge 4975938#1-AddedOnRampEdge 49816356#0 4998581 4999324#0 8033317 8033341 96943773#0 96943773#1 96943773#1-AddedOnRampEdge 96943773#1-AddedOnRampEdge"
		id="9184018" />
	<taz
		edges="-105847828 -128901020 -128901022 -128901025 -145623417#2 -145623421 -15542950 -188141703 -191567981 -199617866 -201785595 -23543792 -24158160 -24158165 -24158166 -245967692 -26824245 -26825706 -283609443 -299575149 -32707919 -348343843 -371662320 -381020627 -382950401 -382970766 -382970767 -39452040 -39452041#1 -401794324 -4045968 -4075230 -4075293 -41206108 -4297587#1.565 -467654030 -4982458 -56680916 -56680916.287 -5790609 -80120508 -85801526 -85801528 -85801529 -94554114#0 -96400337 -96400345 105847780 105847828 109933060#0 109933061 109933063#0 128901018 128901020 128901022 128901025 128901031#1-AddedOffRampEdge 128901031#1-AddedOnRampEdge 128901031#1-AddedOnRampEdge 128901033 128901033-AddedOffRampEdge 128901037 128901038 128901042 128901043 128901055 136163396 136163397 136163398 136163399#0 136163399#1 136163401 137197671 144156939 144156939 144156939 144156945 144586443 144586443 144586443 145623417#0 145623419 145623421 145623422 147669869 147669871 149034840 152264563 152264565 152541737#0 152541739 152639370 152640598 152640600 154765661 155051173 188141702 188141703 188141704 191567724 191567981 191567981.310 222258737 222258742 24158160 24158166 24158169 245967683#0 245967683#1 245967683#2 245967683#3 245967692 255221607#0 255221607#1 26825706 288719551 288719553 288719555 288719555 288719555 290404128 291785539#0 291785539#1 291786968 293347248 325819450 325856498 326391230#1-AddedOnRampEdge 326391230#1-AddedOnRampEdge 326391230#1-AddedOnRampEdge 326391230#1-AddedOnRampEdge 32707919 334841507 348343843 35046920#0 35046920#0-AddedOffRampEdge 3678328 3678329 371662320 375194826#1-AddedOffRampEdge 375194826#1-AddedOnRampEdge 375194826#1-AddedOnRampEdge 375347280 375347280-AddedOnRampEdge 375347280-AddedOnRampEdge 37987632 382950394 382950398 382950401 382950402 382970767 382970768 39452045 398400551 399716382 400039803 4045968 4061795 4075230 4075283 4075284 4075285 4075293 409758294 4234646 4441740 4441741 467654030 467654031 467654037 467654038 4769557#0 4982457 499628558 499628559 499628560 51784725 51785792#0 52171267#0 52171268 52171269 52172129 52172133 52172133.142 52172134#0 52172134#1 5790580 5790594 5790609 5790650 5790655 76564490 80120508 82528688 85801530 94554114#0 94554121#0 94554121#1 94554135 96400337 96400345"
		id="9162115" />
	<taz
		edges="-10640709#2 -122461815#1 -122461825 -125415302#1 -125930348 -125930352 -12811203 -162967451#1 -19084728#2 -193663857 -193663858 -22724206 -22724207#2 -22933530 -23004871#0 -23004871#1 -2385472#1 -243907358 -27176096#2 -27351518 -28017775 -280263700 -30212893#1 -30248935#2 -30599348#2 -30819813#5 -326348924#1 -3345198 -339536005 -341611912#2 -341611920#1 -341611925#2 -341611932#2 -341611936#1 -341648788 -341648789 -341648790#1 -341648791 -341648792#2 -341648793 -341648794 -341648795 -341648796#2 -341648797#1 -341824940 -341900014#5 -341900017#1 -341900060 -341900066#2 -341900074 -3636491 -393288753#2 -407568046#0 -408467684 -433031177 -4386622#1 -4389030#2 -465242210 -56222688#2 -89229935 -90018223#1 -9247275#2 100871342 100871342-AddedOnRampEdge 100871342-AddedOnRampEdge 100871343 100871343 100871343 100871346 100871348 100871352 100871358 100871360 100871360 100871360 100871363 100871363 100871363 100871369 100871370#1 100871371 100871373 100871373 100871373 100871373 10640709#0 11811045#0 122461815#0 125415302#0 125930352 12811203 141620461 141620461 141620461 141620461 141620495 141620498 141620506 141620512 141620517#0 141620517#1 141620517#1-AddedOnRampEdge 141620517#1-AddedOnRampEdge 141620518 146070309 146070310 146070310-AddedOffRampEdge 162967451#1 164407410 164407411 164407575 170986635 186437092 186437378 19084728#0 19084730 198358388 198358388 198358388 205696733 205696734 205696736 22724206 22724207#0 23004871#0 23004871#1 2384687 2385472#0 2399165 253333221#0 261762550#0 27176096#0 27351517 280263702 280263703 280264725 280264754 280269658 30248935#0 30599348#0 307456801 30819813#0 32456944 326348924#0 3345199 3345200 341611912#0 341611920#0 341611925#0 341611929 341611932#0 341611936#0 341648787 341648788 341648789 341648790#0 341648791 341648792#0 341648793 341648794 341648795 341648796#0 341648797#0 341824994#0 341900013 341900019 341900021 341900060 341900066#0 341900074 341900077 34795020#0 3636462 3662424 372390101 407568046#0 407568046#1 408467684 4241832#2 4241833 433031177 4343910 4389030#0 4389034 4389175#0 447892441 500084763 5074633 55717665 56222688#0 64941218#0 64941218#1 64941218#2 89229935 9247275#0 94374853 95995652 96214533#2"
		id="9162010" />
	<taz
		edges="-106412904 -113470995 -144435601#2 -146645330 -295931063#2 -30323347#0 -35108719#3 -35108720#3 -53178982 -53178982.666 -53298708#2 -8069179#2 103151349 106412904 125136376#0 141552522 142702186 142771970#0 143179839 144435601#0 151406643#0 151406643#0.1244 151883469#0 151883469#1 151883470 151883472#0 152962050#0 154013707 154198883 154359890 156356253 156356254 165636090#0 165636095 165636097 165636099 165636101 172496578#0 172496578#2 195549661 230122234#0 230251445 230251449#0 230359734 230359738 230359738.512 24687409 24687411 24687411-AddedOffRampEdge 25506442#0 258932724#0 258932724#1 258932728 258932744 258932747#0 258932748#0 258932749 258932764#0 258932765#0 258942641#0 258942642 258942646#0 258942648#0 258942655 258942661 258942664 258942669 258942673 261597263 27151613#0 28213143 292755366 292756442 292756442 292756442 30323347#0 326520707 326520707 326520707 326520707 326520709 326520711 337993105 35039839#3 35043027#0 35043034#0 35043036#0 35043039#0 35043041#0 35078621 35078622#0 35108719#3 35108720#0 3576882 3576884#0 3689896 37666015#0 4061623 4080242 4080261 4265489 4265495 4438085 4438086#1 463422402 49609559 49609565 49609567#0 49609571 49609578 49712177#0 4972838#0 53298708#0 53298715 67408434 8069179#0 92434938 92434944 92434946"
		id="9162079" />
	<taz
		edges="-107105106 -107105109 -119219997#1 -11960706 -128901027 -130424107 -136000499 -141128728 -142215124 -144137420 -145173767 -145293253 -151830558 -152195766 -154182822#0 -157146830 -157221259 -15777952 -160417655 -160781017#2 -163552313 -168146893 -187388862 -190819940 -203817626 -204583608 -206575912#1 -217449833 -223817279 -224109865#1 -243094215 -243094218 -24769247 -24769320#2 -24769353 -25920335 -25920950 -25920951 -25921182#0 -266311920 -26692915 -26692922 -26692923 -27388295 -290573638 -29161601 -307848387#1 -307848388#1 -315499745 -315499746 -326391244 -326391249 -326391250 -326418280 -326418284 -326418286 -326418303 -32854175#1 -342102365 -34308471 -34991711 -34991712 -34991713 -34991714 -366121970 -366121973#2 -366121974#2 -366128085#2 -366209462 -366209463 -369388511 -36996484 -375194825 -375804513 -37727230 -382709985 -382950397 -386647685 -38708143 -394535956 -394535957 -394535958 -4045873#0 -4045900 -4046317 -4046554 -4046933 -412618711 -412618714 -412618719 -412954610 -412954611 -412954612 -412954613 -412954615 -412954616 -412954617 -412954628 -412954631 -412954632 -412954633 -412954634 -412954635 -412954640 -412954648 -412954649 -412956803 -412960993#1 -412960994#1 -412960995#1 -412960996#1 -413107240 -41386148 -41424289 -4212606#1 -4294694 -43874924 -4427110 -4427135 -4488902#2 -45559083 -45786321 -46737898 -4778501 -4781613#1 -49201828 -5107127 -5107152 -51785793 -51790791 -51916330 -51916331 -59279158#2 -59374020 -59374023 -59374025 -68526363 -68526365 -72772501 -78766633 -96020719 -96400328 10264302 10434351 10434353 10434354 107096414 107105106 107105109 108490429 11960706 128901010 128901011 128901012 128901013 128901014 128901015 128901016 128901023 128901026 128901027 128901028 128901063 128901063-AddedOffRampEdge 13590165 13590178 136000499 141128728 144117526 144137420 144156940 144156943 144156950 144334854 144334854 144334854 144555137-AddedOnRampEdge 144555137-AddedOnRampEdge 144555137-AddedOnRampEdge 144555137-AddedOnRampEdge 144555137-AddedOnRampEdge 144655314 144655317 145293253 147547764 151830557 151830558 152195766 154182822#0 154182822#1 154765655 154765659 154765659 154765659 154765663 154795612 15777948 15777948.82 15777951 160417655 163552313 163552314 163552315 163552316#0 163552317 163552318 165385794 17728135 17760635 17762920 17762921 182135495 182135495-AddedOnRampEdge 182135495-AddedOnRampEdge 184272990 190818752 190818777 190819940 191428860 194605227 194606310 194606312 194607697 19798104 19829062 19829917 19829918 199222162 199631450 203817626 206575912#0 210284143 210284146 217301541 217301541.585 217449833 217999470 22109176 223817280 224109862 224109863 224109865#0 224109870 237916184 238896280 243092499 243094215 24769247 24769320#0 250515624 250515624-AddedOnRampEdge 250515624-AddedOnRampEdge 250515624-AddedOnRampEdge 250515624-AddedOnRampEdge 250517900 250517900-AddedOffRampEdge 253350649 253353291 253353292 253353293 253353293-AddedOnRampEdge 253353293-AddedOnRampEdge 253353293-AddedOnRampEdge 253353293-AddedOnRampEdge 253356362 253356366 253356366 253356366 253356366 253356366 253356367 253356367 253356367 253356367 25920334#0 25920335 25920808#0 25920808#1 25920808#1-AddedOnRampEdge 25920808#1-AddedOnRampEdge 25920808#1-AddedOnRampEdge 25920847 25920848 25920950 25920951 25920952 25920953 25921099 262527739#0 262527739#1 266311917 266311918 26692915 26692916 26692922 26692923 27200368 27484565 27484565-AddedOnRampEdge 27484565-AddedOnRampEdge 27510276 27510276-AddedOffRampEdge 28786676 28786676.72 288719540 288719540 288719540 288719546 290573638 291785534 291785536 291785536-AddedOffRampEdge 291785537 291785537.192 291785541 291786967 291786969 298827064 307848382 307848384 307848385#0 307848387#0 307848402 315499745 315499746 325856476 325856479 325856479 325856480 325856481 325856482 325856484 325856485 325856486 325856487 325856487 325856487 325856489 325856490 325856491#0 325856491#1 325856492-AddedOffRampEdge 325856494 325861925 325861926 325861927 325861927 325861927 325861929 325861929 325861929 325861930 325861931 325882157 325882159 325882159 325882159 325882159 325882160 325882163 325882169 325882173 325882177 325882180 326391232 326391233 326391234 326391235 326391236 326391237 326391238 326391240 326391241 326391242 326391246 326391248 326391249 326391250 326418273 326418285 326418286 326418288 326418288 326418301 326418303 326449551 326455246 341128259#0 342102365 34308471 345729589 34605861 34991714 35046920#2 35046920#2-AddedOnRampEdge 35046920#2-AddedOnRampEdge 35046920#2-AddedOnRampEdge 35046920#2-AddedOnRampEdge 3551748 366121970 366121973#0 366121974#0 366128084 366128085#0 366209462 366209463 369388510 369388513 369388515 369388516 369388517 369388521 36996485#1 36996487 375347279#1 375347279#1-AddedOnRampEdge 375347279#1-AddedOnRampEdge 37727230 38059694 382950397 38331791 38331793 38331796 38331797 38331805 38331806 38526008#0 38708143 394535956 394535957 394535958 398234683 398234684 398234685 398234686 398234688 398234689 398234690 398398152 398398153 398399714 398404353 398404355 399301956 399301958 399365178 399365181 399365184 399365186 400032580 400032586 400032590 400039792 400039796 400039805 400039806 4006155 4045873#0 4045958 4045992 4046063 4046071 4046317 4046342 4046408 4046554 4046933 4080193 4080360 40804670 40804671 412618719 412954611 412954612 412954614 412954615 412954617 412954624 412954625 412954626 412954630 412954631 412954633 412954635 412954636 412954648 412954649 412954655 412960993#0 412960994#0 412960995#0 412960996#0 413107241 41385876 41386146 41660007 4212606#0 421614352 421614353 421614354 421614357 421624047 421624048 4297588#0 43118248 43118252 43118253 43118254 43118256 43118258 43118260 432156818 43793484 43793487 43793488 43793491 43793493 43793495 43793496 43793498 43793499 43793501 43874925 43874927 43874929 4426340 4426416 4427110 4488902#0 45785481 45785482 45786321 45786323 45786326 45786327 46737898 46737899 474013892 4769548 4781613#0 4781697 4874455 4901993 49201808 49201833 49789068 49789070#0 49789071 5059726 5059728 5059730 5107110 5107118 5107119 5107127 5107152 51783982 51783986#0 51783986#0.1346 51783987 51783988 51783988.163 51785793 51790183 51790791 51916330 51916331 539505214 57922651 58683698 58683699 58683700 58698089 58698092 58698095 58698096 58698097 590602523 59279158#0 59374020 59374025 72772501 78346870 78346874 78766633 79190167 85805278 85805279 88903863 9042638 91219338 91219340 91219590 91220077 96020716 96020719 96020721 96020776"
		id="9162119" />
	<taz
		edges="-107959126 -146645723 -150396472 -277526125 -296774665 -355185433#1 -450260647 -475545833 -56249000#2 -56249001#1 -56429126 -58422305 107959126 107959128#0 123415543 141256266 141414053 141415627 141415627 141415627 141415627 141511021#0 141611719 141612047#0 141750001 141761762 142082030 142289478 142419788 143426656 143426659 143430991#0 143430995#0 144294179 144294184#0 144294185 145038752 145460194#0 146645723 147558369 149962026 149962027 150396472 150396474#0 150396476 153878041 153878041 153878041 154947926 154947933 158175318 159742959 279663966 295881538 296774665 30600009#0 30600011 307433592#0 307775419 326826050 326828240 326828245 326828248 355185433#0 380390241#0 383846813 475545833 500232264 50369529#0 50460851 56249000#0 56249001#0 56254764 58422305 58422396#0 63963430#0 63963442"
		id="9162022" />
	<taz
		edges="-108253832 -145308671 -152540382#1 -154809480 -154810314 -154814460 -157940493 -172968312 -198352023 -229465579 -25165892#0 -25649888 -271441108 -27597403#2 -27996124 -28983415 -293556309 -30213004 -30599966#0 -30599966#2 -31344747 -325182796 -341900026 -35819820 -35819824#1 -35819826 -373898444#1 -374107261 -375722805 -379323249 -380870362 -382351209 -384555171 -384555173 -385760103 -385760108#2 -385760114#0 -38660450 -38660465 -386629882 -387199754 -388747320 -388778610 -389288564 -413079129 -413092838 -413959533#1 -433554642 -433554646 -490601259 -490601260 -490601262 -4930373#1 -615005545 -65412314 -83650841 -90399419 103598893 103598895 108253832 11603589 11605096 144929328 145308670 145308671 152113870 152113876 152540382#0 152540382#2 154809479 154809484 154810314 157940493 157944270 164607766 168788191 168788243 229465579 24632199 24828582 24923145 24923379 255969703 25649888 263282461 263282622#0 26653902 27381589 27381616#0 27406370 27597402 27645459 27996124 28764145 289444420 289444423 289444423 289444423 289444423 289444426 29011832 290146638 290146639 290146639-AddedOffRampEdge 290151890 290151890-AddedOffRampEdge 29265257 29265257-AddedOnRampEdge 29265257-AddedOnRampEdge 29265257-AddedOnRampEdge 29265257-AddedOnRampEdge 29265257-AddedOnRampEdge 293556309 293556312 293556313 30085919 30144679 30144688#0 30144759 30144774#0 30144774#1 30144783#0 30144838 304770524 30599966#0 30599966#1 30600766 318893111 318893113 318893116 318893117 318893120 31910199 31910999 31911247 31911247 31911252 32346712 341900026 35158451#1 35158452#0 35819820 35819823#0 35819824#0 35819825 35819826 373898444#0 375720068#0 375720068#1 377828372 379144212 379323249 382351205 383162727 384555172 384555174 385510737 385760108#0 385760114#0 386629882 388748581 388778610 389291672 406851341 413085004 413843351 414770304 423171677#0 432921696 433018169 434725556 435189624 435189625 435190689#0 435190690 4620126#1 490601259 490601262 491452279 4930373#0 4931322 499629745 5095817 510295074#0 53106691#0 56702447 56702448 615005546 622325152 64942250 65412312#0 65412317 8159486 94699728 94699732"
		id="9184003" />
	<taz
		edges="-113078530#1 -167631671 -254844701#2 -260510496 -260510502 -260510503 -260510507#2 -260510511 -311181481 -351615223 -351615235 -37739520#0 -42150872 11285555 11536962#0 11536963 11543324 11543326 141617503 141617506 142770955 142771700#0 142771701 142771702#0 142978716-AddedOnRampEdge 142978716-AddedOnRampEdge-AddedOnRampEdge 142978716-AddedOnRampEdge-AddedOnRampEdge 142978716-AddedOnRampEdge-AddedOnRampEdge 142978716-AddedOnRampEdge-AddedOnRampEdge 142978717 142978718 143420584 143474812#0 145348935 153097300 153097300 154359841#0 154916173 231852593#0 231852594#0 231852595#0 231855939#0 23611509#0 254844701#0 255834262 255834262 255834262 255834262 255834262 255834266 255834273 260510496 260510502 260510507#0 260510511 260510555#0 264478234#0 288791828 288791828 288791828 288791829 311181481 326516911 326516912 326520698 326520698 326520698 326520708 326520710 32958392#0 354927560 37739520#0 38562405#0 4006223#0 40107612 40144606 40144606 40144606 414460382 41532482 42150872 42150873 4230962 4230962 4230962 4230962 4230962-AddedOffRampEdge 4231198#0 42539019 43335774 4391176 52475481 52476059 56316151"
		id="9162028" />
	<taz
		edges="-113853349#2 -120851779 -260510509#2 -31231549 -32958393 -340978589 -341900022#2 -341931160#2 -37665849 -38609710#2 -40108147 -40108148#2 -42694477#1 -53289485 -56307428 10417648#1 10422829#0 113853327 11672203#0 120848919#0 120848920 141161388 141550252#0 143120475#0 147668927#0 179606416 230359739#0 230359741#0 231851818#0 231852587#0 231855937#0 231855938#0 260345647 260510509#0 260756022 260756027#0 260756028#0 260756029#0 260756032 260756034#0 260756036#0 260756042#0 31231595#0 32256065 32256066#0 32854649#0 32854653#0 32854656#0 340978591 341900022#0 341931160#0 37429908#0 37690203#1 40108148#0 42694477#0 49863572 50590625 53289485 59422877 59571453#0 8867882#0"
		id="9162025" />
	<taz
		edges="-113966147#1 -113966152 -190576757 -26696145 -291785529 -325856474 -325856475 -3577198#1 -3577199 -4016950#2 -4016953#2 -51696606 -51696606.264 -56680704#1 109377388 109931495 113775774 113966145 172535147 246460421 246460422#1 246460422#1-AddedOnRampEdge 246460422#1-AddedOnRampEdge 255406971 25797045 2898048 2898049 290582415#0 291785529 325821731 325856474 325856475 3342911 3342912 3342970.1360 35262511#0 3577198#0 3577199 377972367#0 377972370 377972372 377972378#0 377972378#0.241 377972386 377972387 377972388 4016950#0 4016951 51696606 56680704#0 86029036#0"
		id="9162034" />
	<taz
		edges="-115522615#2 -151945454#2 -152970937 -168731755#1 -312449921 -312656398 -3615971#4 -3615979#1 -37690201#1 -37772097 -380316695#2 -380316699#2 -380316700 -380413855 -495861695 11533313 115522615#0 143743767 143805425 151945454#0 152720513#0 152720513#3 159490642#0 172535151#0 211461758#0 22561213#0 230701034 231456467#0 231456490#0 261604625#0 288719543 288719543 288719543 31175350#1 325815909 341931172#0 341931172#1 3615971#0 3615979#0 366879950 366879951 366879952 367980499 369247519 36945711 37666180#0 37690201#0 378031030 380316695#0 380316699#0 380316700 380412857 380412863#0 4062194#0 4066297 420680106#0 461097075 86328245 86328248#0 91079903 91264382"
		id="9162037" />
	<taz
		edges="-115964704 -14187276 -273331287#2 -284925761#2 -30909879 -365508939#7 -392518626#2 -392518628#1 -4386523#2 -8143442#2 106055577 124063741 13963482 13963482-AddedOnRampEdge 13963482-AddedOnRampEdge 13963482-AddedOnRampEdge 141424477#0 141424477#1 147015834 151147536 151147537#1 152279744#0 152279745 152279745-AddedOnRampEdge 152279745-AddedOnRampEdge 152279745-AddedOnRampEdge 152279770#0 152279771 152279771-AddedOnRampEdge 152279771-AddedOnRampEdge 152279771-AddedOnRampEdge 153878044 159542591 159542593 159542594 172966756#0 173376696#0 24990543#0 24990572#0 25549812#0 25549812#4 259069521 27145317#0 27145319#0 284925759#0 284925760#0 28767307 289444428 289444430 289444430 289444430 289444430 289444434 289444437 289444437 289444437 289444437 289444439 289444439 289444439 289444439 290151886 290151888 290151889 290153181 290153183 290153186 290153188 292630592#0 295881541#0 30909843#0 318893112 318893115#0 318893118-AddedOffRampEdge 318893121 318893121-AddedOffRampEdge 319483719#0 319483767#0 319483768#0 319483769#0 319483770 326826040 326826044 326826052 35158446 35158447 35158448 35158449 365508922#0 365508924#0 365508939#0 365508940 365508941#0 365508943#0 365508944#0 384222370#0 392507131#0 392518626#0 4075143 4075144#0 4075145 428501342#0 4386523#0 4386526#0 4386526#0.109 492214374 5095594#0 53106692 71360458#0 71360459 71360460#0 7769290#0 8131898 8133968#0 8143442#0 90255833#0 9188388 9340583 94694441#0"
		id="9162016" />
	<taz
		edges="-11635292 -145812453 -149392133#1 -152921446 -199152352 -204781773 -234874702 -239068374#2 -239068374#2.676 -27351515 -30616227 -322760498#1 -32441857 -32623952 -32821321 -33428780 -343069118#2 -38259357 -4096404 -454587646 -454587646.1342 -4796557 -48088972 -481774773#0 -55264244#1 -59426910 -60611683 -89229938#2 -90064703 -90064706 -9112282 -9258606#2 -9663044 -9663044.760 105697348 11855790 143578417 143581161 143945810 144193877 144385709#0 144385709#1 144385816 144386093 144386230 144575128 144575132 145779209 145779210#0 145779210#0 145779210#0 145779210#0 149392133#0 149392133#2 149394036 149802998#0 152921446 15805654 15805655 193085143#0 198359298 198359298 198362553 198366313 198366313 198366313 198366313 199119156 199152352 199479280 203010196 228460344 231677070 233728745#1 234874700 234874702 2413197 2413202 2413203#0 2413205 253327114 253327114 253327114 253331659 253331659 253331660 253331660 253331661 26427775#0 26427775#0.484 26600549 280269661 280269664 280271363 280273997 280274001 280342519 292601722#0.1839 30761426 30761431 30761540 30761540.782 31565724#0 32623945 326360856 326360857 326360858 326360858 326360858 326360861 326360862 326360867 326360868 326360871 326360871 326360871 326360873 326360875 33428777 3345201.394 3345203 33850251 371630531 371630531.885 371630545 37261038 38259355 38259356 38259357 3995418 4096404 42441878 4629157#0 4629196 4763066 47673418 47674015 47675597#0 4796556#0 4796557 48088972 485742404 4902054 49026958 49026959 541607286 55943637 57141256 59426910 60611683 90064706 9258606#0 9663044"
		id="9162012" />
	<taz
		edges="-119661119 -119661120#4 -120851780 11528357 119661120#0 120848921 120851780 141832138 143420582#0 143420583#0 143488546#0 154916179 216105591 216105592 229715425#0 231855941 292771014#0 292773767 293475334#2 31150566 312121558 312121559 314501985 314501988#0 314501989#0 314501990#0 314501991 314501992#0 314501999#0 341943388 362796882 377844905#0 3998507#0 43331013#0 43331017 52475485 56307430 8147070"
		id="9162093" />
	<taz
		edges="-122891955 -149788627#2 -156640186 -249746697 -31173021#1 -31173302#1 -32736018#3 -451790951#2 -45357414#1 -46737749 -4799043 -500266563 -500266712 -78053580#1 -90236819 122891955 128328255 139737160#0 141226239#0 141226245#0 143586050#0 146234215#0 149019857 149034837 149037469 149788627#0 152503558#0 155448729 156640178#0 156640182#0 156640183#0 156640184#0 156640186 156640187#0 156822489 157653355#0 157946255 190098616 23142609 24680710 26798628 26832054 31173299#0 31173302#0 31175540#0 31175540#1 32736018#0 32736019 32736021 32736022 341931158#0 341931169#0 341931171#0 35078630#0 36568181#0 36945719 38057570 38057572#0 38057572#0 38057573#0 39085066#0 39085348 40321589 4061740#0 4073959 4075207#0 448303661 45357414#0 4662599 4662600#0 467655364 4698887#0 4799043 49606428#0 49916205#0 504393139 56632497 57830998 78053580#0 78053580#0.466 78053584"
		id="9162068" />
	<taz
		edges="-123499640 -310729848#1 -89699184#1 -89699200#2 -89840550#1 -97241128 147557401 151996170#0 241674898 241674900 30603896#0 30761501 310729848#0 34114237#0 34160676#0 4000480 51109541#0 86334703#1 89699200#0"
		id="9162065" />
	<taz